57
Generated by autodE on: 2023-04-04. E = -1275.805420 Ha
Pd   -1.99047  12.23113  11.56827
C     2.04844  11.38106  12.71452
C     3.02351  11.97555  13.68003
C     2.37292  10.27271  11.91943
C     1.43723   9.75215  11.03306
C     0.18518  10.34592  10.94630
N    -0.13742  11.40266  11.70734
C     0.76487  11.90583  12.56795
H     3.36404   9.81761  11.99815
H     1.66930   8.88934  10.40636
H    -0.57621   9.97580  10.25688
H     0.44506  12.76155  13.16742
H     2.59230  12.82240  14.22972
H     3.92335  12.33165  13.15549
H     3.35461  11.22322  14.41189
C    -0.48660  13.42329   7.73801
C     0.67203  14.23679   7.25661
C    -1.40467  12.84492   6.84996
C    -2.47064  12.09766   7.33691
C    -2.61282  11.93933   8.70874
N    -1.73730  12.48473   9.56677
C    -0.70226  13.20324   9.09817
H    -1.27951  12.98254   5.77245
H    -3.19509  11.63760   6.66266
H    -3.44121  11.36991   9.13501
H    -0.01643  13.61611   9.84206
H     1.31179  13.64400   6.58523
H     1.29162  14.60166   8.08619
H     0.32275  15.10815   6.68178
C    -5.26906  14.87528  10.77676
C    -5.41314  16.24858  10.20305
C    -6.37818  14.13040  11.20217
C    -6.20241  12.85810  11.73358
C    -4.91794  12.34136  11.83677
N    -3.85095  13.04280  11.42506
C    -4.01843  14.27277  10.90891
H    -7.38276  14.55342  11.11547
H    -7.05242  12.26252  12.07099
H    -4.73214  11.35131  12.25806
H    -3.11487  14.79479  10.58451
H    -5.90176  16.92219  10.92346
H    -6.04450  16.22931   9.30147
H    -4.44303  16.68517   9.93183
C    -2.76528  12.92084  15.72141
C    -3.11690  14.11618  16.54800
C    -2.61227  11.64683  16.28663
C    -2.28398  10.56158  15.48251
C    -2.10660  10.75976  14.11978
N    -2.25491  11.97393  13.56843
C    -2.57689  13.02418  14.34383
H    -2.75253  11.50865  17.36220
H    -2.16186   9.56165  15.90233
H    -1.83839   9.93796  13.45291
H    -2.69189  13.98693  13.84003
H    -3.20339  15.02570  15.93923
H    -2.35361  14.29369  17.32103
H    -4.07327  13.96059  17.07022
