280
 energy: -538.284784580160 gnorm: 0.000718130078 xtb: 6.3.3 (4ae9cef)
O       -24.56118818048971  -22.57515984942163  -23.38329044377449
C       -25.20184415521763  -21.86541270408460  -22.63331193704884
C       -26.05793099045117  -20.75872818381536  -23.13387410403799
C       -26.81879517883302  -19.90654156499258  -22.30006308339691
O       -26.72352932468672  -19.83942500848593  -21.01645755144368
C       -27.74922835096665  -18.96439039519916  -22.90925324561842
O       -28.46640292972943  -18.26508341260423  -22.10801977763295
C       -27.77758920360317  -18.83183866635121  -24.30782950795000
C       -26.97045999413188  -19.62813636012440  -25.08524330515228
C       -26.13253712281788  -20.58766440546909  -24.50886798716394
N       -25.21156389056126  -22.01060590668544  -21.26844037436473
C       -24.67893274990723  -23.04128052597906  -20.52435538988228
C       -24.53084754151556  -22.88137688973625  -19.10740322952848
C       -23.98421278619968  -23.96218057826931  -18.35394499114540
C       -23.78720216138067  -23.79672615603979  -16.94324821013639
N       -23.12397859006353  -24.79002273766550  -16.26186610344752
C       -23.01589203887244  -25.00122123955049  -14.90953737568171
C       -22.10869016075866  -26.13282343256074  -14.55625493035418
C       -21.37143576215966  -26.88711120424198  -15.49687076837609
O       -21.40051118655461  -26.70479854276458  -16.77629977132786
C       -20.48699464942131  -27.94868718815084  -15.03266802187283
O       -19.82490465344380  -28.59115779789463  -15.92836958411066
C       -20.39185296610543  -28.20818058008999  -13.65774868381445
C       -21.12899363254038  -27.46147998843605  -12.76677926545988
C       -21.96978710241974  -26.43854251832240  -13.20827931968542
O       -23.59325885183222  -24.34905960087488  -14.06548368944025
C       -24.22676337184624  -22.64321009702608  -16.31419356349066
C       -24.78966973585576  -21.61564663675784  -17.06008902928965
C       -24.91568536720287  -21.70948158380310  -18.42720673752841
C       -23.70278624632336  -25.17802867446401  -19.00307936436288
C       -23.89681592882314  -25.31308521810609  -20.35740480427953
C       -24.34395029025483  -24.24612904937848  -21.12314157399349
H       -28.45313165061626  -18.11079687551067  -24.74221508219628
H       -26.99083802720645  -19.52948607101361  -26.15932019808435
H       -25.51109413074468  -21.21588411391540  -25.13196035646338
H       -25.69925990163171  -21.26876253711927  -20.76775849455546
H       -22.59979226342559  -25.45665974879461  -16.82949660466158
H       -19.73773681517104  -28.99992726621657  -13.32764392108684
H       -21.05695562075746  -27.66471245958078  -11.70944802972977
H       -22.53709689819416  -25.84939201624985  -12.50312453822299
H       -24.11675232714028  -22.54419947459950  -15.24736950593999
H       -25.11974347484866  -20.72582194256720  -16.54852804042705
H       -25.33198225674734  -20.86889468245404  -18.96202640636005
H       -23.36276380053875  -26.03812893241962  -18.44732352729443
H       -23.71969264514686  -26.26323347675087  -20.83638440124989
H       -24.46693217944510  -24.36269737670465  -22.18634488392301
O       -16.71920598058422  -20.60981810144844  -21.43346913446075
C       -16.98939106563463  -20.86848351863433  -22.58890466798907
C       -16.21749062425576  -20.30571645425869  -23.73706442689260
C       -16.58529616254398  -20.47359509193555  -25.09204112319092
O       -17.63108452959841  -21.10617506853615  -25.50413605384076
C       -15.78217271767134  -19.86630711326933  -26.14600516291175
O       -16.18918990533626  -20.03920518121052  -27.35124981902769
C       -14.65321689156134  -19.10661029543212  -25.79423718613545
C       -14.30683548441240  -18.98277761828514  -24.47051671792208
C       -15.07351169573468  -19.57353514855278  -23.46016378051090
N       -18.00980306918994  -21.69177877982854  -22.98319563492158
C       -18.83498537590755  -22.50760564212312  -22.24542234104076
C       -19.39476031470570  -23.66069802000026  -22.89077952967621
C       -20.18719199521718  -24.56047106969823  -22.11975365797035
C       -20.67791886196800  -25.75224971805630  -22.74482001502298
N       -21.32876739029764  -26.69084585775634  -21.97049004635142
C       -22.04717406179601  -27.78543955876937  -22.38170493851417
C       -22.45115346351193  -28.70143680250467  -21.27742761489240
C       -22.03099206001879  -28.56157632794210  -19.93572473419780
O       -21.34189368547642  -27.57841947367890  -19.47307653209141
C       -22.35069630170925  -29.61061502362624  -18.97309101069323
O       -21.82223592834361  -29.50281196414486  -17.81283751666051
C       -23.17754104305898  -30.67670842551728  -19.36798989399687
C       -23.63002518662983  -30.74346067515562  -20.66384130199408
C       -23.25612288906883  -29.78220969396883  -21.60716785539153
O       -22.34297137773151  -28.01752966389557  -23.53664971719031
C       -20.46195293175084  -25.96615138309101  -24.09544649166062
C       -19.71400565171333  -25.06340491511433  -24.83935886142536
C       -19.17198710609901  -23.94490133437450  -24.25328627379146
C       -20.47807257254354  -24.23227176395593  -20.78032026623134
C       -20.00134364922154  -23.07156142831967  -20.21874479438524
C       -19.16114970357635  -22.22161670541211  -20.93125406397162
H       -14.07085547088143  -18.65153711775035  -26.58063088206839
H       -13.43344921620429  -18.41690311275705  -24.18711799826123
H       -14.77211047393641  -19.44916100544796  -22.43117795312563
H       -18.06788838381865  -21.79824454551866  -23.99445389480440
H       -21.20232957627569  -26.61973078317622  -20.96206109730848
H       -23.42505024923672  -31.43359247456550  -18.64015292755559
H       -24.26430588326113  -31.56137871373900  -20.96937399014837
H       -23.58528750148023  -29.86331404483873  -22.63257148527692
H       -20.85985339755466  -26.85063256989661  -24.56204750383494
H       -19.53597111508704  -25.25979666561159  -25.88537116775133
H       -18.56196980568532  -23.30400204886471  -24.87092256319806
H       -21.10496567318097  -24.87301360692096  -20.17937040405390
H       -20.27340736194245  -22.81869991166802  -19.20424634676927
H       -18.74942523616750  -21.33964651898496  -20.47115069758459
O       -19.71056889668724  -20.26291549631227  -12.61072013564969
C       -19.00469614280274  -19.61463043898869  -13.35528651091971
C       -18.52702529415051  -18.25544845039870  -12.97759788796259
C       -17.72363174901407  -17.42843597611569  -13.78897200555634
O       -17.33263841103598  -17.72045358524667  -14.98834365088868
C       -17.28435540506351  -16.13832047753568  -13.28069374638615
O       -16.52985849417143  -15.43392963144399  -14.05407221370032
C       -17.69014044801806  -15.72428069358965  -12.00672631893334
C       -18.49068929195940  -16.54586777902572  -11.24359895916417
C       -18.89844977807365  -17.79017924912104  -11.72009798337492
N       -18.56434909451048  -20.04853128049078  -14.58639225579069
C       -18.77653506867342  -21.26281218119063  -15.19644987543524
C       -18.08425309994389  -21.56990862814667  -16.41756545525340
C       -18.29205267564998  -22.84758324264789  -17.02451779084384
C       -17.57947167199299  -23.16740890096837  -18.23039106942117
N       -17.74061706639661  -24.41375632765437  -18.78884145182705
C       -17.34900251882480  -24.86981825555550  -20.02476693095301
C       -17.57833383801857  -26.32546562576539  -20.22360141424970
C       -18.32322408450950  -27.14267229487675  -19.34500375408611
O       -18.98298694001961  -26.72091408564589  -18.31895975079219
C       -18.44540221354934  -28.56417848300376  -19.62924634540517
O       -19.14251693294247  -29.25828605087147  -18.80216706326371
C       -17.84957295826053  -29.09303561296601  -20.78381819381804
C       -17.14063025666352  -28.26745223215812  -21.62570322165726
C       -17.01198136562885  -26.90632621442866  -21.35094731116438
O       -16.84915487623272  -24.17638929489994  -20.88867513348985
C       -16.71719594138983  -22.23610607165890  -18.79235417973146
C       -16.53579357768885  -20.99971056380802  -18.19247632392256
C       -17.20086027220052  -20.66375175154834  -17.03448316243740
C       -19.19406577469213  -23.74780206452995  -16.42837635631798
C       -19.84671025494416  -23.42181374795197  -15.26117612746943
C       -19.64345952273911  -22.19802893448346  -14.64422126948702
H       -17.35662915012322  -14.76389997607424  -11.64615245819338
H       -18.80290686230106  -16.22790334412320  -10.26092456892825
H       -19.51926543660806  -18.43434396962974  -11.11556886602759
H       -17.96986203400313  -19.37673185197222  -15.07105045151557
H       -18.26512140047840  -25.10167655148211  -18.24879260864470
H       -17.95518729999389  -30.14881865611406  -20.98047478275656
H       -16.67537004127144  -28.67501659727110  -22.50980545335645
H       -16.45738128453163  -26.26205726992562  -22.01676719573254
H       -16.19322378126141  -22.46950409715915  -19.70277791897689
H       -15.85322826426583  -20.30402006626192  -18.65262481535572
H       -17.01755499394762  -19.68738530876747  -16.61264581661291
H       -19.40028421642451  -24.71130224281843  -16.86841964113089
H       -20.52226498515205  -24.12879538964868  -14.80622737273811
H       -20.15643328328719  -21.96846475071336  -13.72613500880060
O       -23.53628822535021  -21.75440373549571  -26.36521497472831
C       -22.41845392278325  -22.09229190162058  -26.06558987091516
C       -21.50519721842112  -22.89333004362752  -26.93810887001022
C       -20.26635371274384  -22.27453378329514  -27.23647980783825
O       -19.96877728256608  -21.09863610073752  -26.83198159978499
C       -19.28007391808762  -22.97795595212083  -28.04996401949896
O       -18.14233546536907  -22.41243212807466  -28.20691419304701
C       -19.63581845666130  -24.23054424271992  -28.58536080583646
C       -20.87698910694786  -24.76364365654219  -28.32987507029485
C       -21.81199156467223  -24.10566639576905  -27.51051486785645
N       -21.77728393522735  -21.72811261420511  -24.89855273141021
C       -22.24142998338901  -20.79503218708691  -23.98561851454368
C       -22.69326960181382  -19.52493905309944  -24.44754632640251
C       -23.34063825077562  -18.65376378092999  -23.52774153928430
C       -23.85434872747063  -17.41191131516957  -24.02443935504133
N       -24.62629852838468  -16.64335858603408  -23.18111707611866
C       -25.10540613541400  -15.36855450806184  -23.36082980839697
C       -26.13998581153603  -14.97280154398522  -22.36429275770469
C       -26.66773045385030  -15.84429511970943  -21.38667380900677
O       -26.22287179394160  -17.02675774215232  -21.12566334501891
C       -27.84301435501873  -15.43905794077743  -20.62777076399101
O       -28.38885964818434  -16.33823460136418  -19.89731865114639
C       -28.32557143700197  -14.12555386733310  -20.76024771148225
C       -27.72596684311173  -13.26757157562259  -21.65109005738778
C       -26.66815903510497  -13.69325332324961  -22.45952029736391
O       -24.75348008638688  -14.62341935429076  -24.25166740904651
C       -23.58859289812112  -17.02254142422430  -25.32757290435627
C       -22.85471461101260  -17.84566323256527  -26.17404747046368
C       -22.42936520240221  -19.08404509455857  -25.75659888140085
C       -23.38231060731691  -19.01785060164205  -22.16877290560231
C       -22.77917519902302  -20.17505863536876  -21.72981823709840
C       -22.21811832781800  -21.07377545601537  -22.63243252060028
H       -18.91665872939444  -24.75164146963111  -29.19850628890835
H       -21.14180905460170  -25.72000409752047  -28.75475295329057
H       -22.77078815755383  -24.55813935440138  -27.31131489913067
H       -21.04124322067644  -22.34700758741736  -24.57977380602524
H       -24.99528977406862  -17.11928357590833  -22.35814270741785
H       -29.17820775252635  -13.82702005735448  -20.17051348561895
H       -28.09553588624708  -12.25907292192615  -21.75608213039894
H       -26.23964677865409  -13.03047688834750  -23.19659374408134
H       -23.95117977400166  -16.06970256086817  -25.67568102409402
H       -22.63127238294173  -17.50748203535428  -27.17444989441938
H       -21.84227402144435  -19.70050157918839  -26.41790341236347
H       -23.84615032786704  -18.37628071866575  -21.43573560549810
H       -22.76731600498028  -20.40820273079860  -20.67506988916508
H       -21.81576851136269  -22.01256906822656  -22.28368359669233
O       -18.88863762406605  -15.08413844258514  -21.05804462371029
C       -18.56899030391358  -15.25195111320175  -19.89688381615276
C       -17.25391638718851  -14.78781594873979  -19.37643297488912
C       -16.78179347998325  -15.02856178604426  -18.06547118751524
O       -17.39338275245115  -15.71640649519584  -17.16661412328656
C       -15.46171867023801  -14.53834112841106  -17.68484873071875
O       -15.07010882380179  -14.81653744926519  -16.49798190040613
C       -14.69330925473555  -13.82359377006061  -18.61979943743468
C       -15.20116081148038  -13.57340890395746  -19.87191006770843
C       -16.45985254842106  -14.05187952090245  -20.24568828449262
N       -19.35138021593379  -15.86836199875862  -18.95301154958386
C       -20.68221829083910  -16.21488852475079  -19.02015046397609
C       -21.29675738310865  -16.82881996938676  -17.87730411593274
C       -22.69956264617888  -17.09396803960282  -17.91391406898920
C       -23.32427979962953  -17.67725924054935  -16.76052256717340
N       -24.66510224226817  -17.98163835160008  -16.81656248725382
C       -25.51712718778916  -18.33829514881899  -15.79769956896217
C       -26.88963591853702  -18.69977002688834  -16.25640069872304
C       -27.31937262104295  -18.67350476321405  -17.60173902740470
O       -26.58166490066756  -18.32650710632354  -18.60454324091970
C       -28.68527422919536  -19.06829353184860  -17.92580572727712
O       -29.02931683225912  -19.03476089162375  -19.16465478309718
C       -29.54601051996379  -19.47048039950831  -16.89436713371902
C       -29.09803775856340  -19.48216756546814  -15.59308495306504
C       -27.79162554951054  -19.10443427689571  -15.28029726885640
O       -25.20651211492800  -18.37131255853502  -14.62509335936242
C       -22.57129226570960  -17.94516706416659  -15.62657650392307
C       -21.20705050121988  -17.69168931343081  -15.61576224835719
C       -20.57291085555045  -17.16098891591306  -16.71553134506540
C       -23.43110401715631  -16.73699997069598  -19.06212388343855
C       -22.80744806530775  -16.16651614769725  -20.14743391711976
C       -21.44224797306651  -15.92177900043482  -20.14223372874291
H       -13.72046212752306  -13.46636431199272  -18.31893388818164
H       -14.62333424013583  -13.00224516030230  -20.58203973479932
H       -16.85649295308801  -13.84534732578759  -21.22806338833108
H       -18.89221925715057  -15.98395720300377  -18.04968770829821
H       -25.11051395511155  -17.94700511803880  -17.73320735226598
H       -30.55425505003440  -19.75759795074462  -17.14893693540073
H       -29.76331503526864  -19.78626410909717  -14.79976992422691
H       -27.44481457165616  -19.11959847888588  -14.25774210398100
H       -23.05108972518881  -18.35852667217345  -14.75567008860892
H       -20.64097424376528  -17.91809648802318  -14.72532783651847
H       -19.50654288436935  -17.00568405697446  -16.65438717497168
H       -24.49915209543562  -16.88374068845626  -19.11241927152785
H       -23.38361135679353  -15.87576623858754  -21.01192513285481
H       -20.97021844571781  -15.46821505377398  -20.99693719920351
O       -13.81675658355580  -18.22355079018787  -20.93322579289829
C       -14.43017681206093  -18.06451767112112  -19.89621648808933
C       -13.75056160580883  -18.07623244033568  -18.57431674926949
C       -14.40825381721240  -17.78886483650157  -17.35662620191982
O       -15.67633233011551  -17.66425151441026  -17.21148184111961
C       -13.62224770782230  -17.55979694515625  -16.14711385804871
O       -14.26015178928967  -17.10403099639502  -15.13780885020134
C       -12.23985651388148  -17.81224191600239  -16.17865320435266
C       -11.64742498238156  -18.20200289750426  -17.35653245066448
C       -12.38370710309155  -18.30454823910697  -18.54137098708005
N       -15.77805857228508  -17.81308595672666  -19.83293994568856
C       -16.67983537059976  -17.69535395207793  -20.87614328536005
C       -16.38213563499440  -16.94247743850489  -22.04615735241210
C       -17.29293746496675  -16.99461576086991  -23.13785401809116
C       -16.96901747487378  -16.26944960982780  -24.32761070546636
N       -17.72132311286329  -16.48205967377938  -25.46127734075263
C       -17.71792601785531  -15.74373148027863  -26.62332475993988
C       -18.24041156501518  -16.46418887502942  -27.81414255415039
C       -18.45965890725874  -17.86219568503191  -27.84857926084090
O       -18.45092035421054  -18.64013611014855  -26.82758677054007
C       -18.64882715843888  -18.51100266438337  -29.14256390937644
O       -18.61236647442149  -19.79175284871744  -29.15390277501171
C       -18.81902813498344  -17.72165241683976  -30.29220289393696
C       -18.71697461095412  -16.35387661449132  -30.20023635889805
C       -18.39493725553709  -15.73944052400975  -28.98627168750386
O       -17.28835866989339  -14.61195949143109  -26.70036884075888
C       -15.88064376265866  -15.40712370019847  -24.33523581941330
C       -15.05911183744135  -15.30032310789036  -23.22305342969300
C       -15.28021110027435  -16.07172491455977  -22.10363479680929
C       -18.50856751170337  -17.68198205194840  -22.98337838583100
C       -18.83903807452521  -18.26456216839126  -21.78047883949024
C       -17.92932637614247  -18.27946301975481  -20.73140523593704
H       -11.66625411116494  -17.66723945167049  -15.27657217502901
H       -10.58566357085273  -18.39443548340146  -17.38199020156837
H       -11.89326311236240  -18.54869378415608  -19.47188554179404
H       -16.19075050060771  -17.93923399244334  -18.90879104968658
H       -18.21811840702676  -17.36901630898106  -25.51353494386371
H       -19.00142370512404  -18.21526823163818  -31.23410867156871
H       -18.84563931512970  -15.74490518369927  -31.08178954512110
H       -18.24266968955998  -14.67147965183406  -28.93668762004187
H       -15.67324880150220  -14.82645895900827  -25.21865460781930
H       -14.22278231752017  -14.61883213766042  -23.24926769124838
H       -14.61200299330783  -15.99003299288897  -21.26426401997745
H       -19.22942928078482  -17.70622547336101  -23.78694231163543
H       -19.80453766254037  -18.73387385866758  -21.65796183484314
H       -18.17409679089345  -18.77804483977127  -19.80490796082487
Ga      -20.36318230546504  -28.12122135263607  -17.74401386992118
Ga      -16.06106090710643  -16.34268132708477  -15.69123167377485
Ga      -18.12732848789776  -20.58545934963746  -27.39990425503976
Ga      -27.67931108771639  -18.18240264198291  -20.28069992059637
